@<TRIPOS>MOLECULE
Aniline
     14     14      1
SMALL
USER_CHARGES

@<TRIPOS>ATOM
      1  C1          0.000000    0.000000    0.000000  C.ar    1  <1>   0.00
      2  C2          0.000000    0.000000    1.399900  C.ar    1  <1>   0.00
      3  C3          1.212400    0.000000    2.099900  C.ar    1  <1>   0.00
      4  C4          2.424800    0.000000    1.399900  C.ar    1  <1>   0.00
      5  C5          2.424800    0.000000    0.000000  C.ar    1  <1>   0.00
      6  C6          1.212400    0.000000   -0.699900  C.ar    1  <1>   0.00
      7  N7          1.212400    0.000000   -2.101900  N.3     1  <1>   0.00
      8  H8          1.212400    0.000000    3.179900  H       1  <1>   0.00
      9  H9         -0.935300    0.000000    1.940000  H       1  <1>   0.00
     10  H10        -0.935300    0.000000   -0.539900  H       1  <1>   0.00
     11  H11         3.360100    0.000000   -0.540000  H       1  <1>   0.00
     12  H12         3.360100    0.000000    1.939900  H       1  <1>   0.00
     13  H13         2.037000    0.476100   -2.438600  H       1  <1>   0.00
     14  H14         0.387700    0.476100   -2.438600  H       1  <1>   0.00

@<TRIPOS>BOND
      1      1      2  ar
      2      1      6  ar
      3      1     10  1
      4      2      3  ar
      5      2      9  1
      6      3      4  ar
      7      3      8  1
      8      4      5  ar
      9      4     12  1
     10      5      6  ar
     11      5     11  1
     12      6      7  1
     13      7     13  1
     14      7     14  1

@<TRIPOS>SUBSTRUCTURE
      1  ****      1  TEMP      0  ****  ****      0  ROOT
