@<TRIPOS>MOLECULE
Azulene
     18     19      1
SMALL
USER_CHARGES

@<TRIPOS>ATOM
      1  C1          0.000000    0.000000    0.000000  C.ar    1  <1>   0.00
      2  C2          0.000000    0.000000    1.500000  C.ar    1  <1>   0.00
      3  C3          1.426585    0.000000    1.963525  C.ar    1  <1>   0.00
      4  C4          2.308263    0.000000    0.750000  C.ar    1  <1>   0.00
      5  C5          1.426585    0.000000   -0.463525  C.ar    1  <1>   0.00
      6  C6         -1.251859    0.000000   -0.826346  C.ar    1  <1>   0.00
      7  C7         -1.386317    0.000000   -2.320308  C.ar    1  <1>   0.00
      8  C8         -0.302123    0.000000   -3.356900  C.ar    1  <1>   0.00
      9  C9          1.184301    0.000000   -3.155547  C.ar    1  <1>   0.00
     10  C10         1.953647    0.000000   -1.867872  C.ar    1  <1>   0.00
     11  H11        -0.889919    0.000000    2.146564  H       1  <1>   0.00
     12  H12         1.766503    0.000000    3.009688  H       1  <1>   0.00
     13  H13         3.408263    0.000000    0.750000  H       1  <1>   0.00
     14  H14        -2.196154    0.000000   -0.262158  H       1  <1>   0.00
     15  H15        -2.416175    0.000000   -2.706821  H       1  <1>   0.00
     16  H16        -0.642040    0.000000   -4.403063  H       1  <1>   0.00
     17  H17         1.790290    0.000000   -4.073576  H       1  <1>   0.00
     18  H18         3.049219    0.000000   -1.966473  H       1  <1>   0.00

@<TRIPOS>BOND
      1      1      2  ar
      2      1      5  ar
      3      1      6  ar
      4      2      3  ar
      5      2     11  1
      6      3      4  ar
      7      3     12  1
      8      4      5  ar
      9      4     13  1
     10      5     10  ar
     11      6      7  ar
     12      6     14  1
     13      7      8  ar
     14      7     15  1
     15      8      9  ar
     16      8     16  1
     17      9     10  ar
     18      9     17  1
     19     10     18  1

@<TRIPOS>SUBSTRUCTURE
      1  ****      1  TEMP      0  ****  ****      0  ROOT
